57

  C       -2.9987970       -0.2047930       -0.0003900
  C       -2.0208370       -2.2249280       -0.0004000
  C       -4.0773130       -1.1906410       -0.0003000
  C       -3.4630600       -2.4593290       -0.0003500
  C       -5.4655190       -1.0646410       -0.0001900
  C       -4.2248560       -3.6265020       -0.0002600
  C       -6.2237520       -2.2321720       -0.0001400
  H       -5.9313330       -0.0866690       -0.0001600
  C       -5.6110460       -3.4974800       -0.0001600
  H       -3.7462600       -4.5982530       -0.0002700
  H       -7.3060730       -2.1684290       -0.0000800
  H       -6.2322000       -4.3861060       -0.0000900
  C        2.2249300       -2.0208280        0.0000300
  C        0.2047940       -2.9987980       -0.0001500
  C        2.4593310       -3.4630510        0.0003700
  C        1.1906430       -4.0773040        0.0002400
  C        3.6265030       -4.2248560        0.0007500
  C        1.0646440       -5.4655100        0.0005100
  C        3.4974820       -5.6110360        0.0010200
  H        4.5982550       -3.7462500        0.0008500
  C        2.2321740       -6.2237430        0.0009000
  H        0.0866800       -5.9313350        0.0004000
  H        4.3861180       -6.2321920        0.0013100
  H        2.1684410       -7.3060650        0.0011300
  C        2.0208390        2.2249290       -0.0002400
  C        2.9987990        0.2047930       -0.0001100
  C        3.4630520        2.4593300       -0.0003100
  C        4.0773050        1.1906420       -0.0002000
  C        4.2248680        3.6265020       -0.0004200
  C        5.4655200        1.0646320       -0.0002200
  C        5.6110470        3.4974710       -0.0004400
  H        3.7462610        4.5982540       -0.0004900
  C        6.2237440        2.2321740       -0.0003600
  H        5.9313350        0.0866700       -0.0001400
  H        6.2322020        4.3861070       -0.0005200
  H        7.3060650        2.1684300       -0.0004000
  C       -0.2047930        2.9987880       -0.0001800
  C       -2.2249270        2.0208390       -0.0002100
  C       -1.1906410        4.0773040        0.0002600
  C       -2.4593290        3.4630510        0.0002700
  C       -1.0646420        5.4655100        0.0006900
  C       -3.6265020        4.2248570        0.0006800
  C       -2.2321720        6.2237430        0.0011200
  H       -0.0866690        5.9313340        0.0006800
  C       -3.4974800        5.6110370        0.0011000
  H       -4.5982530        3.7462610        0.0006900
  H       -2.1684290        7.3060640        0.0014700
  H       -4.3861050        6.2322020        0.0014200
  N       -1.1099280       -3.1926130       -0.0002900
  N        1.1099300        3.1926140       -0.0002100
  N        3.1926150       -1.1099290        0.0000500
  N       -3.1926230        1.1099300       -0.0002600
  N        0.8719840       -1.8015480       -0.0003200
  N        1.8015490        0.8719830       -0.0000800
  N       -1.8015470       -0.8719830       -0.0004400
  N       -0.8719920        1.8015490       -0.0005500
  Zn        0.0000000        0.0000000       -0.0002900
